/gpfs/home/avd22gnu/scratch/modelTest/CAL12/NEMO/OPA_SRC/DIA/diawri_dimg.h90