/gpfs/home/avd22gnu/scratch/modelTest/CAL12/NEMO/OPA_SRC/DOM/domzgr_substitute.h90