/gpfs/home/avd22gnu/scratch/modelTest/CAL12/NEMO/OPA_SRC/OBS/grt_cir_dis.h90