/gpfs/home/avd22gnu/scratch/modelTest/CAL12/NEMO/OPA_SRC/OBS/jul2greg.h90