/gpfs/home/avd22gnu/scratch/modelTest/CAL12/NEMO/OPA_SRC/LDF/ldfdyn_c3d.h90