/gpfs/home/avd22gnu/scratch/modelTest/CAL12/NEMO/OPA_SRC/LDF/ldfeiv_substitute.h90