/gpfs/home/avd22gnu/scratch/modelTest/CAL12/NEMO/OPA_SRC/LDF/ldftra_c1d.h90