/gpfs/home/avd22gnu/scratch/modelTest/CAL12/NEMO/LIM_SRC_2/limwri_dimg_2.h90