/gpfs/home/avd22gnu/scratch/modelTest/CAL12/NEMO/OPA_SRC/OBS/obsinter_z1d.h90