/gpfs/home/avd22gnu/scratch/modelTest/CAL12/NEMO/OPA_SRC/SBC/tide.h90