/gpfs/home/avd22gnu/scratch/modelTest/CAL12/NEMO/OPA_SRC/vectopt_loop_substitute.h90