/gpfs/home/avd22gnu/scratch/modelTest/CAL12/NEMO/OPA_SRC/ZDF/zdfddm_substitute.h90